tests/golden/reports/show_voltages.txt

SYMMETRICAL COMPONENT VOLTAGES BY BUS (for 3-phase buses)

Bus   Mag:   V1 (kV)    p.u.     V2 (kV)   %V2/V1    V0 (kV)    %V0/V1

sourcebus        66.39          1   0.001676   0.002525   4.32E-9  6.506E-9
650              2.402     0.9999  0.00008009   0.003335 0.00001485 0.0006184
rg60             2.521       1.05     0.0149     0.5909   0.01497    0.5938
633              2.434      1.013    0.01228     0.5046   0.02595     1.066
634             0.2751     0.9927   0.001638     0.5954  0.003322     1.208
671              2.392     0.9958    0.04221      1.765   0.08258     3.453
645              2.449       1.02          0          0         0         0
646              2.445      1.018          0          0         0         0
692              2.392     0.9958    0.04221      1.765   0.08258     3.453
675              2.387     0.9937    0.04537      1.901   0.08767     3.673
611              2.308     0.9608          0          0         0         0
652              2.343     0.9753          0          0         0         0
670              2.422      1.008    0.02238      0.924   0.04404     1.818
632               2.44      1.016    0.01225     0.5023   0.02508     1.028
680              2.392     0.9958    0.04221      1.765   0.08258     3.453
684              2.356     0.9809          0          0         0         0
